function mpc = case_ieee123
%   Power flow data for IEEE 123 bus test case.
%   Please see CASEFORMAT for details on the case file format.
%
%	This testbed is distributed in the hope that it will be useful, but without any warranty.
%	We do request that publications in which this testbed is adopted, explicitly acknowledge that fact by citing:
%
%	S. Bolognani, S. Zampieri (2014)
%	"On the existence and linear approximation of the power flow solution in power distribution networks"
%	Preprint available at http://arxiv.org/abs/1403.5031

%% MATPOWER Case Format : Version 2
mpc.version = '2';

%%-----  Power Flow Data  -----%%
%% system MVA base
mpc.baseMVA = 1;

%% bus data
%	bus_i	type	Pd	Qd	Gs	Bs	area	Vm	Va	baseKV	zone	Vmax	Vmin
mpc.bus = [
	1	1	0.160	0.080	0.000	0.000	1	1	0	4.16	1	1.1	0.9	;
	7	1	0.020	0.010	0.000	0.000	1	1	0	4.16	1	1.1	0.9	;
	8	1	0.120	0.060	0.000	0.000	1	1	0	4.16	1	1.1	0.9	;
	13	1	0.100	0.050	0.000	0.000	1	1	0	4.16	1	1.1	0.9	;
	52	1	0.040	0.020	0.000	0.000	1	1	0	4.16	1	1.1	0.9	;
	53	1	0.040	0.020	0.000	0.000	1	1	0	4.16	1	1.1	0.9	;
	54	1	0.000	0.000	0.000	0.000	1	1	0	4.16	1	1.1	0.9	;
	55	1	0.020	0.010	0.000	0.000	1	1	0	4.16	1	1.1	0.9	;
	56	1	0.020	0.010	0.000	0.000	1	1	0	4.16	1	1.1	0.9	;
	57	1	0.040	0.020	0.000	0.000	1	1	0	4.16	1	1.1	0.9	;
	60	1	0.020	0.010	0.000	0.000	1	1	0	4.16	1	1.1	0.9	;
	62	1	0.040	0.020	0.000	0.000	1	1	0	4.16	1	1.1	0.9	;
	63	1	0.040	0.020	0.000	0.000	1	1	0	4.16	1	1.1	0.9	;
	64	1	0.075	0.035	0.000	0.000	1	1	0	4.16	1	1.1	0.9	;
	65	1	0.140	0.100	0.000	0.000	1	1	0	4.16	1	1.1	0.9	;
	66	1	0.075	0.035	0.000	0.000	1	1	0	4.16	1	1.1	0.9	;
	67	1	0.120	0.060	0.000	0.000	1	1	0	4.16	1	1.1	0.9	;
	72	1	0.120	0.060	0.000	0.000	1	1	0	4.16	1	1.1	0.9	;
	76	1	0.245	0.180	0.000	0.000	1	1	0	4.16	1	1.1	0.9	;
	77	1	0.040	0.020	0.000	0.000	1	1	0	4.16	1	1.1	0.9	;
	78	1	0.000	0.000	0.000	0.000	1	1	0	4.16	1	1.1	0.9	;
	79	1	0.040	0.020	0.000	0.000	1	1	0	4.16	1	1.1	0.9	;
	80	1	0.040	0.020	0.000	0.000	1	1	0	4.16	1	1.1	0.9	;
	81	1	0.060	0.030	0.000	0.000	1	1	0	4.16	1	1.1	0.9	;
	82	1	0.040	0.020	0.000	0.000	1	1	0	4.16	1	1.1	0.9	;
	83	1	0.020	0.010	0.000	0.000	1	1	0	4.16	1	1.1	0.9	;
	86	1	0.020	0.010	0.000	0.000	1	1	0	4.16	1	1.1	0.9	;
	87	1	0.080	0.040	0.000	0.000	1	1	0	4.16	1	1.1	0.9	;
	89	1	0.040	0.020	0.000	0.000	1	1	0	4.16	1	1.1	0.9	;
	91	1	0.040	0.020	0.000	0.000	1	1	0	4.16	1	1.1	0.9	;
	93	1	0.040	0.020	0.000	0.000	1	1	0	4.16	1	1.1	0.9	;
	95	1	0.040	0.020	0.000	0.000	1	1	0	4.16	1	1.1	0.9	;
	97	1	0.000	0.000	0.000	0.000	1	1	0	4.16	1	1.1	0.9	;
	98	1	0.040	0.020	0.000	0.000	1	1	0	4.16	1	1.1	0.9	;
	99	1	0.040	0.020	0.000	0.000	1	1	0	4.16	1	1.1	0.9	;
	100	1	0.040	0.020	0.000	0.000	1	1	0	4.16	1	1.1	0.9	;
	101	1	0.100	0.050	0.000	0.000	1	1	0	4.16	1	1.1	0.9	;
	105	1	0.080	0.040	0.000	0.000	1	1	0	4.16	1	1.1	0.9	;
	108	1	0.140	0.070	0.000	0.000	1	1	0	4.16	1	1.1	0.9	;
	18	1	0.080	0.040	0.000	0.000	1	1	0	4.16	1	1.1	0.9	;
	21	1	0.040	0.020	0.000	0.000	1	1	0	4.16	1	1.1	0.9	;
	23	1	0.040	0.020	0.000	0.000	1	1	0	4.16	1	1.1	0.9	;
	25	1	0.080	0.040	0.000	0.000	1	1	0	4.16	1	1.1	0.9	;
	28	1	0.040	0.020	0.000	0.000	1	1	0	4.16	1	1.1	0.9	;
	29	1	0.040	0.020	0.000	0.000	1	1	0	4.16	1	1.1	0.9	;
	30	1	0.040	0.020	0.000	0.000	1	1	0	4.16	1	1.1	0.9	;
	35	1	0.120	0.060	0.000	0.000	1	1	0	4.16	1	1.1	0.9	;
	40	1	0.020	0.010	0.000	0.000	1	1	0	4.16	1	1.1	0.9	;
	42	1	0.060	0.030	0.000	0.000	1	1	0	4.16	1	1.1	0.9	;
	44	1	0.040	0.020	0.000	0.000	1	1	0	4.16	1	1.1	0.9	;
	47	1	0.105	0.075	0.000	0.000	1	1	0	4.16	1	1.1	0.9	;
	48	1	0.210	0.150	0.000	0.000	1	1	0	4.16	1	1.1	0.9	;
	49	1	0.140	0.095	0.000	0.000	1	1	0	4.16	1	1.1	0.9	;
	50	1	0.040	0.020	0.000	0.000	1	1	0	4.16	1	1.1	0.9	;
	51	1	0.020	0.010	0.000	0.000	1	1	0	4.16	1	1.1	0.9	;
	150	3	0.000	0.000	0.000	0.000	1	1	0	4.16	1	1.1	0.9	;
	61	1	0.000	0.000	0.000	0.000	1	1	0	4.16	1	1.1	0.9	;
	94	1	0.000	0.000	0.000	0.000	1	1	0	4.16	1	1.1	0.9	;
	135	1	0.000	0.000	0.000	0.000	1	1	0	4.16	1	1.1	0.9	;
	149	1	0.000	0.000	0.000	0.000	1	1	0	4.16	1	1.1	0.9	;
	151	1	0.000	0.000	0.000	0.000	1	1	0	4.16	1	1.1	0.9	;
	152	1	0.000	0.000	0.000	0.000	1	1	0	4.16	1	1.1	0.9	;
	160	1	0.000	0.000	0.000	0.000	1	1	0	4.16	1	1.1	0.9	;
	197	1	0.000	0.000	0.000	0.000	1	1	0	4.16	1	1.1	0.9	;
	250	1	0.000	0.000	0.000	0.000	1	1	0	4.16	1	1.1	0.9	;
	300	1	0.000	0.000	0.000	0.000	1	1	0	4.16	1	1.1	0.9	;
	450	1	0.000	0.000	0.000	0.000	1	1	0	4.16	1	1.1	0.9	;
	611	1	0.160	0.080	0.000	0.000	1	1	0	4.16	1	1.1	0.9	;
	617	1	0.020	0.010	0.000	0.000	1	1	0	4.16	1	1.1	0.9	;
	618	1	0.120	0.060	0.000	0.000	1	1	0	4.16	1	1.1	0.9	;
	623	1	0.100	0.050	0.000	0.000	1	1	0	4.16	1	1.1	0.9	;
	662	1	0.040	0.020	0.000	0.000	1	1	0	4.16	1	1.1	0.9	;
	663	1	0.040	0.020	0.000	0.000	1	1	0	4.16	1	1.1	0.9	;
	664	1	0.000	0.000	0.000	0.000	1	1	0	4.16	1	1.1	0.9	;
	665	1	0.020	0.010	0.000	0.000	1	1	0	4.16	1	1.1	0.9	;
	666	1	0.020	0.010	0.000	0.000	1	1	0	4.16	1	1.1	0.9	;
	667	1	0.040	0.020	0.000	0.000	1	1	0	4.16	1	1.1	0.9	;
	670	1	0.020	0.010	0.000	0.000	1	1	0	4.16	1	1.1	0.9	;
	672	1	0.040	0.020	0.000	0.000	1	1	0	4.16	1	1.1	0.9	;
	673	1	0.040	0.020	0.000	0.000	1	1	0	4.16	1	1.1	0.9	;
	674	1	0.075	0.035	0.000	0.000	1	1	0	4.16	1	1.1	0.9	;
	675	1	0.140	0.100	0.000	0.000	1	1	0	4.16	1	1.1	0.9	;
	676	1	0.075	0.035	0.000	0.000	1	1	0	4.16	1	1.1	0.9	;
	677	1	0.120	0.060	0.000	0.000	1	1	0	4.16	1	1.1	0.9	;
	682	1	0.120	0.060	0.000	0.000	1	1	0	4.16	1	1.1	0.9	;
	686	1	0.245	0.180	0.000	0.000	1	1	0	4.16	1	1.1	0.9	;
	687	1	0.040	0.020	0.000	0.000	1	1	0	4.16	1	1.1	0.9	;
	688	1	0.000	0.000	0.000	0.000	1	1	0	4.16	1	1.1	0.9	;
	689	1	0.040	0.020	0.000	0.000	1	1	0	4.16	1	1.1	0.9	;
	690	1	0.040	0.020	0.000	0.000	1	1	0	4.16	1	1.1	0.9	;
	691	1	0.060	0.030	0.000	0.000	1	1	0	4.16	1	1.1	0.9	;
	692	1	0.040	0.020	0.000	0.000	1	1	0	4.16	1	1.1	0.9	;
	693	1	0.020	0.010	0.000	0.000	1	1	0	4.16	1	1.1	0.9	;
	696	1	0.020	0.010	0.000	0.000	1	1	0	4.16	1	1.1	0.9	;
	697	1	0.080	0.040	0.000	0.000	1	1	0	4.16	1	1.1	0.9	;
	699	1	0.040	0.020	0.000	0.000	1	1	0	4.16	1	1.1	0.9	;
	701	1	0.040	0.020	0.000	0.000	1	1	0	4.16	1	1.1	0.9	;
	703	1	0.040	0.020	0.000	0.000	1	1	0	4.16	1	1.1	0.9	;
	705	1	0.040	0.020	0.000	0.000	1	1	0	4.16	1	1.1	0.9	;
	707	1	0.000	0.000	0.000	0.000	1	1	0	4.16	1	1.1	0.9	;
	708	1	0.040	0.020	0.000	0.000	1	1	0	4.16	1	1.1	0.9	;
	709	1	0.040	0.020	0.000	0.000	1	1	0	4.16	1	1.1	0.9	;
	710	1	0.040	0.020	0.000	0.000	1	1	0	4.16	1	1.1	0.9	;
	711	1	0.100	0.050	0.000	0.000	1	1	0	4.16	1	1.1	0.9	;
	715	1	0.080	0.040	0.000	0.000	1	1	0	4.16	1	1.1	0.9	;
	718	1	0.140	0.070	0.000	0.000	1	1	0	4.16	1	1.1	0.9	;
	628	1	0.080	0.040	0.000	0.000	1	1	0	4.16	1	1.1	0.9	;
	631	1	0.040	0.020	0.000	0.000	1	1	0	4.16	1	1.1	0.9	;
	633	1	0.040	0.020	0.000	0.000	1	1	0	4.16	1	1.1	0.9	;
	635	1	0.080	0.040	0.000	0.000	1	1	0	4.16	1	1.1	0.9	;
	638	1	0.040	0.020	0.000	0.000	1	1	0	4.16	1	1.1	0.9	;
	639	1	0.040	0.020	0.000	0.000	1	1	0	4.16	1	1.1	0.9	;
	640	1	0.040	0.020	0.000	0.000	1	1	0	4.16	1	1.1	0.9	;
	645	1	0.120	0.060	0.000	0.000	1	1	0	4.16	1	1.1	0.9	;
	650	1	0.020	0.010	0.000	0.000	1	1	0	4.16	1	1.1	0.9	;
	652	1	0.060	0.030	0.000	0.000	1	1	0	4.16	1	1.1	0.9	;
	654	1	0.040	0.020	0.000	0.000	1	1	0	4.16	1	1.1	0.9	;
	657	1	0.105	0.075	0.000	0.000	1	1	0	4.16	1	1.1	0.9	;
	658	1	0.210	0.150	0.000	0.000	1	1	0	4.16	1	1.1	0.9	;
	659	1	0.140	0.095	0.000	0.000	1	1	0	4.16	1	1.1	0.9	;
	660	1	0.040	0.020	0.000	0.000	1	1	0	4.16	1	1.1	0.9	;
	661	1	0.020	0.010	0.000	0.000	1	1	0	4.16	1	1.1	0.9	;
	760	3	0.000	0.000	0.000	0.000	1	1	0	4.16	1	1.1	0.9	;
	671	1	0.000	0.000	0.000	0.000	1	1	0	4.16	1	1.1	0.9	;
	704	1	0.000	0.000	0.000	0.000	1	1	0	4.16	1	1.1	0.9	;
	745	1	0.000	0.000	0.000	0.000	1	1	0	4.16	1	1.1	0.9	;
	759	1	0.000	0.000	0.000	0.000	1	1	0	4.16	1	1.1	0.9	;
	761	1	0.000	0.000	0.000	0.000	1	1	0	4.16	1	1.1	0.9	;
	762	1	0.000	0.000	0.000	0.000	1	1	0	4.16	1	1.1	0.9	;
	770	1	0.000	0.000	0.000	0.000	1	1	0	4.16	1	1.1	0.9	;
	807	1	0.000	0.000	0.000	0.000	1	1	0	4.16	1	1.1	0.9	;
	860	1	0.000	0.000	0.000	0.000	1	1	0	4.16	1	1.1	0.9	;
	910	1	0.000	0.000	0.000	0.000	1	1	0	4.16	1	1.1	0.9	;
	1060	1	0.000	0.000	0.000	0.000	1	1	0	4.16	1	1.1	0.9	;
	1221	1	0.160	0.080	0.000	0.000	1	1	0	4.16	1	1.1	0.9	;
	1227	1	0.020	0.010	0.000	0.000	1	1	0	4.16	1	1.1	0.9	;
	1228	1	0.120	0.060	0.000	0.000	1	1	0	4.16	1	1.1	0.9	;
	1233	1	0.100	0.050	0.000	0.000	1	1	0	4.16	1	1.1	0.9	;
	1272	1	0.040	0.020	0.000	0.000	1	1	0	4.16	1	1.1	0.9	;
	1273	1	0.040	0.020	0.000	0.000	1	1	0	4.16	1	1.1	0.9	;
	1274	1	0.000	0.000	0.000	0.000	1	1	0	4.16	1	1.1	0.9	;
	1275	1	0.020	0.010	0.000	0.000	1	1	0	4.16	1	1.1	0.9	;
	1276	1	0.020	0.010	0.000	0.000	1	1	0	4.16	1	1.1	0.9	;
	1277	1	0.040	0.020	0.000	0.000	1	1	0	4.16	1	1.1	0.9	;
	1280	1	0.020	0.010	0.000	0.000	1	1	0	4.16	1	1.1	0.9	;
	1282	1	0.040	0.020	0.000	0.000	1	1	0	4.16	1	1.1	0.9	;
	1283	1	0.040	0.020	0.000	0.000	1	1	0	4.16	1	1.1	0.9	;
	1284	1	0.075	0.035	0.000	0.000	1	1	0	4.16	1	1.1	0.9	;
	1285	1	0.140	0.100	0.000	0.000	1	1	0	4.16	1	1.1	0.9	;
	1286	1	0.075	0.035	0.000	0.000	1	1	0	4.16	1	1.1	0.9	;
	1287	1	0.120	0.060	0.000	0.000	1	1	0	4.16	1	1.1	0.9	;
	1292	1	0.120	0.060	0.000	0.000	1	1	0	4.16	1	1.1	0.9	;
	1296	1	0.245	0.180	0.000	0.000	1	1	0	4.16	1	1.1	0.9	;
	1297	1	0.040	0.020	0.000	0.000	1	1	0	4.16	1	1.1	0.9	;
	1298	1	0.000	0.000	0.000	0.000	1	1	0	4.16	1	1.1	0.9	;
	1299	1	0.040	0.020	0.000	0.000	1	1	0	4.16	1	1.1	0.9	;
	1300	1	0.040	0.020	0.000	0.000	1	1	0	4.16	1	1.1	0.9	;
	1301	1	0.060	0.030	0.000	0.000	1	1	0	4.16	1	1.1	0.9	;
	1302	1	0.040	0.020	0.000	0.000	1	1	0	4.16	1	1.1	0.9	;
	1303	1	0.020	0.010	0.000	0.000	1	1	0	4.16	1	1.1	0.9	;
	1306	1	0.020	0.010	0.000	0.000	1	1	0	4.16	1	1.1	0.9	;
	1307	1	0.080	0.040	0.000	0.000	1	1	0	4.16	1	1.1	0.9	;
	1309	1	0.040	0.020	0.000	0.000	1	1	0	4.16	1	1.1	0.9	;
	1311	1	0.040	0.020	0.000	0.000	1	1	0	4.16	1	1.1	0.9	;
	1313	1	0.040	0.020	0.000	0.000	1	1	0	4.16	1	1.1	0.9	;
	1315	1	0.040	0.020	0.000	0.000	1	1	0	4.16	1	1.1	0.9	;
	1317	1	0.000	0.000	0.000	0.000	1	1	0	4.16	1	1.1	0.9	;
	1318	1	0.040	0.020	0.000	0.000	1	1	0	4.16	1	1.1	0.9	;
	1319	1	0.040	0.020	0.000	0.000	1	1	0	4.16	1	1.1	0.9	;
	1320	1	0.040	0.020	0.000	0.000	1	1	0	4.16	1	1.1	0.9	;
	1321	1	0.100	0.050	0.000	0.000	1	1	0	4.16	1	1.1	0.9	;
	1325	1	0.080	0.040	0.000	0.000	1	1	0	4.16	1	1.1	0.9	;
	1328	1	0.140	0.070	0.000	0.000	1	1	0	4.16	1	1.1	0.9	;
	1238	1	0.080	0.040	0.000	0.000	1	1	0	4.16	1	1.1	0.9	;
	1241	1	0.040	0.020	0.000	0.000	1	1	0	4.16	1	1.1	0.9	;
	1243	1	0.040	0.020	0.000	0.000	1	1	0	4.16	1	1.1	0.9	;
	1245	1	0.080	0.040	0.000	0.000	1	1	0	4.16	1	1.1	0.9	;
	1248	1	0.040	0.020	0.000	0.000	1	1	0	4.16	1	1.1	0.9	;
	1249	1	0.040	0.020	0.000	0.000	1	1	0	4.16	1	1.1	0.9	;
	1250	1	0.040	0.020	0.000	0.000	1	1	0	4.16	1	1.1	0.9	;
	1255	1	0.120	0.060	0.000	0.000	1	1	0	4.16	1	1.1	0.9	;
	1260	1	0.020	0.010	0.000	0.000	1	1	0	4.16	1	1.1	0.9	;
	1262	1	0.060	0.030	0.000	0.000	1	1	0	4.16	1	1.1	0.9	;
	1264	1	0.040	0.020	0.000	0.000	1	1	0	4.16	1	1.1	0.9	;
	1267	1	0.105	0.075	0.000	0.000	1	1	0	4.16	1	1.1	0.9	;
	1268	1	0.210	0.150	0.000	0.000	1	1	0	4.16	1	1.1	0.9	;
	1269	1	0.140	0.095	0.000	0.000	1	1	0	4.16	1	1.1	0.9	;
	1270	1	0.040	0.020	0.000	0.000	1	1	0	4.16	1	1.1	0.9	;
	1271	1	0.020	0.010	0.000	0.000	1	1	0	4.16	1	1.1	0.9	;
	1370	3	0.000	0.000	0.000	0.000	1	1	0	4.16	1	1.1	0.9	;
	1281	1	0.000	0.000	0.000	0.000	1	1	0	4.16	1	1.1	0.9	;
	1314	1	0.000	0.000	0.000	0.000	1	1	0	4.16	1	1.1	0.9	;
	1355	1	0.000	0.000	0.000	0.000	1	1	0	4.16	1	1.1	0.9	;
	1369	1	0.000	0.000	0.000	0.000	1	1	0	4.16	1	1.1	0.9	;
	1371	1	0.000	0.000	0.000	0.000	1	1	0	4.16	1	1.1	0.9	;
	1372	1	0.000	0.000	0.000	0.000	1	1	0	4.16	1	1.1	0.9	;
	1380	1	0.000	0.000	0.000	0.000	1	1	0	4.16	1	1.1	0.9	;
	1417	1	0.000	0.000	0.000	0.000	1	1	0	4.16	1	1.1	0.9	;
	1470	1	0.000	0.000	0.000	0.000	1	1	0	4.16	1	1.1	0.9	;
	1520	1	0.000	0.000	0.000	0.000	1	1	0	4.16	1	1.1	0.9	;
	1670	1	0.000	0.000	0.000	0.000	1	1	0	4.16	1	1.1	0.9	;
	1831	1	0.160	0.080	0.000	0.000	1	1	0	4.16	1	1.1	0.9	;
	1837	1	0.020	0.010	0.000	0.000	1	1	0	4.16	1	1.1	0.9	;
	1838	1	0.120	0.060	0.000	0.000	1	1	0	4.16	1	1.1	0.9	;
	1843	1	0.100	0.050	0.000	0.000	1	1	0	4.16	1	1.1	0.9	;
	1882	1	0.040	0.020	0.000	0.000	1	1	0	4.16	1	1.1	0.9	;
	1883	1	0.040	0.020	0.000	0.000	1	1	0	4.16	1	1.1	0.9	;
	1884	1	0.000	0.000	0.000	0.000	1	1	0	4.16	1	1.1	0.9	;
	1885	1	0.020	0.010	0.000	0.000	1	1	0	4.16	1	1.1	0.9	;
	1886	1	0.020	0.010	0.000	0.000	1	1	0	4.16	1	1.1	0.9	;
	1887	1	0.040	0.020	0.000	0.000	1	1	0	4.16	1	1.1	0.9	;
	1890	1	0.020	0.010	0.000	0.000	1	1	0	4.16	1	1.1	0.9	;
	1892	1	0.040	0.020	0.000	0.000	1	1	0	4.16	1	1.1	0.9	;
	1893	1	0.040	0.020	0.000	0.000	1	1	0	4.16	1	1.1	0.9	;
	1894	1	0.075	0.035	0.000	0.000	1	1	0	4.16	1	1.1	0.9	;
	1895	1	0.140	0.100	0.000	0.000	1	1	0	4.16	1	1.1	0.9	;
	1896	1	0.075	0.035	0.000	0.000	1	1	0	4.16	1	1.1	0.9	;
	1897	1	0.120	0.060	0.000	0.000	1	1	0	4.16	1	1.1	0.9	;
	1902	1	0.120	0.060	0.000	0.000	1	1	0	4.16	1	1.1	0.9	;
	1906	1	0.245	0.180	0.000	0.000	1	1	0	4.16	1	1.1	0.9	;
	1907	1	0.040	0.020	0.000	0.000	1	1	0	4.16	1	1.1	0.9	;
	1908	1	0.000	0.000	0.000	0.000	1	1	0	4.16	1	1.1	0.9	;
	1909	1	0.040	0.020	0.000	0.000	1	1	0	4.16	1	1.1	0.9	;
	1910	1	0.040	0.020	0.000	0.000	1	1	0	4.16	1	1.1	0.9	;
	1911	1	0.060	0.030	0.000	0.000	1	1	0	4.16	1	1.1	0.9	;
	1912	1	0.040	0.020	0.000	0.000	1	1	0	4.16	1	1.1	0.9	;
	1913	1	0.020	0.010	0.000	0.000	1	1	0	4.16	1	1.1	0.9	;
	1916	1	0.020	0.010	0.000	0.000	1	1	0	4.16	1	1.1	0.9	;
	1917	1	0.080	0.040	0.000	0.000	1	1	0	4.16	1	1.1	0.9	;
	1919	1	0.040	0.020	0.000	0.000	1	1	0	4.16	1	1.1	0.9	;
	1921	1	0.040	0.020	0.000	0.000	1	1	0	4.16	1	1.1	0.9	;
	1923	1	0.040	0.020	0.000	0.000	1	1	0	4.16	1	1.1	0.9	;
	1925	1	0.040	0.020	0.000	0.000	1	1	0	4.16	1	1.1	0.9	;
	1927	1	0.000	0.000	0.000	0.000	1	1	0	4.16	1	1.1	0.9	;
	1928	1	0.040	0.020	0.000	0.000	1	1	0	4.16	1	1.1	0.9	;
	1929	1	0.040	0.020	0.000	0.000	1	1	0	4.16	1	1.1	0.9	;
	1930	1	0.040	0.020	0.000	0.000	1	1	0	4.16	1	1.1	0.9	;
	1931	1	0.100	0.050	0.000	0.000	1	1	0	4.16	1	1.1	0.9	;
	1935	1	0.080	0.040	0.000	0.000	1	1	0	4.16	1	1.1	0.9	;
	1938	1	0.140	0.070	0.000	0.000	1	1	0	4.16	1	1.1	0.9	;
	1848	1	0.080	0.040	0.000	0.000	1	1	0	4.16	1	1.1	0.9	;
	1851	1	0.040	0.020	0.000	0.000	1	1	0	4.16	1	1.1	0.9	;
	1853	1	0.040	0.020	0.000	0.000	1	1	0	4.16	1	1.1	0.9	;
	1855	1	0.080	0.040	0.000	0.000	1	1	0	4.16	1	1.1	0.9	;
	1858	1	0.040	0.020	0.000	0.000	1	1	0	4.16	1	1.1	0.9	;
	1859	1	0.040	0.020	0.000	0.000	1	1	0	4.16	1	1.1	0.9	;
	1860	1	0.040	0.020	0.000	0.000	1	1	0	4.16	1	1.1	0.9	;
	1865	1	0.120	0.060	0.000	0.000	1	1	0	4.16	1	1.1	0.9	;
	1870	1	0.020	0.010	0.000	0.000	1	1	0	4.16	1	1.1	0.9	;
	1872	1	0.060	0.030	0.000	0.000	1	1	0	4.16	1	1.1	0.9	;
	1874	1	0.040	0.020	0.000	0.000	1	1	0	4.16	1	1.1	0.9	;
	1877	1	0.105	0.075	0.000	0.000	1	1	0	4.16	1	1.1	0.9	;
	1878	1	0.210	0.150	0.000	0.000	1	1	0	4.16	1	1.1	0.9	;
	1879	1	0.140	0.095	0.000	0.000	1	1	0	4.16	1	1.1	0.9	;
	1880	1	0.040	0.020	0.000	0.000	1	1	0	4.16	1	1.1	0.9	;
	1881	1	0.020	0.010	0.000	0.000	1	1	0	4.16	1	1.1	0.9	;
	1980	3	0.000	0.000	0.000	0.000	1	1	0	4.16	1	1.1	0.9	;
	1891	1	0.000	0.000	0.000	0.000	1	1	0	4.16	1	1.1	0.9	;
	1924	1	0.000	0.000	0.000	0.000	1	1	0	4.16	1	1.1	0.9	;
	1965	1	0.000	0.000	0.000	0.000	1	1	0	4.16	1	1.1	0.9	;
	1979	1	0.000	0.000	0.000	0.000	1	1	0	4.16	1	1.1	0.9	;
	1981	1	0.000	0.000	0.000	0.000	1	1	0	4.16	1	1.1	0.9	;
	1982	1	0.000	0.000	0.000	0.000	1	1	0	4.16	1	1.1	0.9	;
	1990	1	0.000	0.000	0.000	0.000	1	1	0	4.16	1	1.1	0.9	;
	2027	1	0.000	0.000	0.000	0.000	1	1	0	4.16	1	1.1	0.9	;
	2080	1	0.000	0.000	0.000	0.000	1	1	0	4.16	1	1.1	0.9	;
	2130	1	0.000	0.000	0.000	0.000	1	1	0	4.16	1	1.1	0.9	;
	2280	1	0.000	0.000	0.000	0.000	1	1	0	4.16	1	1.1	0.9	;


%copy 2

	2281	1	0.160	0.080	0.000	0.000	1	1	0	4.16	1	1.1	0.9	;
	2287	1	0.020	0.010	0.000	0.000	1	1	0	4.16	1	1.1	0.9	;
	2288	1	0.120	0.060	0.000	0.000	1	1	0	4.16	1	1.1	0.9	;
	2293	1	0.100	0.050	0.000	0.000	1	1	0	4.16	1	1.1	0.9	;
	2332	1	0.040	0.020	0.000	0.000	1	1	0	4.16	1	1.1	0.9	;
	2333	1	0.040	0.020	0.000	0.000	1	1	0	4.16	1	1.1	0.9	;
	2334	1	0.000	0.000	0.000	0.000	1	1	0	4.16	1	1.1	0.9	;
	2335	1	0.020	0.010	0.000	0.000	1	1	0	4.16	1	1.1	0.9	;
	2336	1	0.020	0.010	0.000	0.000	1	1	0	4.16	1	1.1	0.9	;
	2337	1	0.040	0.020	0.000	0.000	1	1	0	4.16	1	1.1	0.9	;
	2340	1	0.020	0.010	0.000	0.000	1	1	0	4.16	1	1.1	0.9	;
	2342	1	0.040	0.020	0.000	0.000	1	1	0	4.16	1	1.1	0.9	;
	2343	1	0.040	0.020	0.000	0.000	1	1	0	4.16	1	1.1	0.9	;
	2344	1	0.075	0.035	0.000	0.000	1	1	0	4.16	1	1.1	0.9	;
	2345	1	0.140	0.100	0.000	0.000	1	1	0	4.16	1	1.1	0.9	;
	2346	1	0.075	0.035	0.000	0.000	1	1	0	4.16	1	1.1	0.9	;
	2347	1	0.120	0.060	0.000	0.000	1	1	0	4.16	1	1.1	0.9	;
	2352	1	0.120	0.060	0.000	0.000	1	1	0	4.16	1	1.1	0.9	;
	2356	1	0.245	0.180	0.000	0.000	1	1	0	4.16	1	1.1	0.9	;
	2357	1	0.040	0.020	0.000	0.000	1	1	0	4.16	1	1.1	0.9	;
	2358	1	0.000	0.000	0.000	0.000	1	1	0	4.16	1	1.1	0.9	;
	2359	1	0.040	0.020	0.000	0.000	1	1	0	4.16	1	1.1	0.9	;
	2360	1	0.040	0.020	0.000	0.000	1	1	0	4.16	1	1.1	0.9	;
	2361	1	0.060	0.030	0.000	0.000	1	1	0	4.16	1	1.1	0.9	;
	2362	1	0.040	0.020	0.000	0.000	1	1	0	4.16	1	1.1	0.9	;
	2363	1	0.020	0.010	0.000	0.000	1	1	0	4.16	1	1.1	0.9	;
	2366	1	0.020	0.010	0.000	0.000	1	1	0	4.16	1	1.1	0.9	;
	2367	1	0.080	0.040	0.000	0.000	1	1	0	4.16	1	1.1	0.9	;
	2369	1	0.040	0.020	0.000	0.000	1	1	0	4.16	1	1.1	0.9	;
	2371	1	0.040	0.020	0.000	0.000	1	1	0	4.16	1	1.1	0.9	;
	2373	1	0.040	0.020	0.000	0.000	1	1	0	4.16	1	1.1	0.9	;
	2375	1	0.040	0.020	0.000	0.000	1	1	0	4.16	1	1.1	0.9	;
	2377	1	0.000	0.000	0.000	0.000	1	1	0	4.16	1	1.1	0.9	;
	2378	1	0.040	0.020	0.000	0.000	1	1	0	4.16	1	1.1	0.9	;
	2379	1	0.040	0.020	0.000	0.000	1	1	0	4.16	1	1.1	0.9	;
	2380	1	0.040	0.020	0.000	0.000	1	1	0	4.16	1	1.1	0.9	;
	2381	1	0.100	0.050	0.000	0.000	1	1	0	4.16	1	1.1	0.9	;
	2385	1	0.080	0.040	0.000	0.000	1	1	0	4.16	1	1.1	0.9	;
	2388	1	0.140	0.070	0.000	0.000	1	1	0	4.16	1	1.1	0.9	;
	2298	1	0.080	0.040	0.000	0.000	1	1	0	4.16	1	1.1	0.9	;
	2301	1	0.040	0.020	0.000	0.000	1	1	0	4.16	1	1.1	0.9	;
	2303	1	0.040	0.020	0.000	0.000	1	1	0	4.16	1	1.1	0.9	;
	2305	1	0.080	0.040	0.000	0.000	1	1	0	4.16	1	1.1	0.9	;
	2308	1	0.040	0.020	0.000	0.000	1	1	0	4.16	1	1.1	0.9	;
	2309	1	0.040	0.020	0.000	0.000	1	1	0	4.16	1	1.1	0.9	;
	2310	1	0.040	0.020	0.000	0.000	1	1	0	4.16	1	1.1	0.9	;
	2315	1	0.120	0.060	0.000	0.000	1	1	0	4.16	1	1.1	0.9	;
	2320	1	0.020	0.010	0.000	0.000	1	1	0	4.16	1	1.1	0.9	;
	2322	1	0.060	0.030	0.000	0.000	1	1	0	4.16	1	1.1	0.9	;
	2324	1	0.040	0.020	0.000	0.000	1	1	0	4.16	1	1.1	0.9	;
	2327	1	0.105	0.075	0.000	0.000	1	1	0	4.16	1	1.1	0.9	;
	2328	1	0.210	0.150	0.000	0.000	1	1	0	4.16	1	1.1	0.9	;
	2329	1	0.140	0.095	0.000	0.000	1	1	0	4.16	1	1.1	0.9	;
	2330	1	0.040	0.020	0.000	0.000	1	1	0	4.16	1	1.1	0.9	;
	2331	1	0.020	0.010	0.000	0.000	1	1	0	4.16	1	1.1	0.9	;
	2430	3	0.000	0.000	0.000	0.000	1	1	0	4.16	1	1.1	0.9	;
	2341	1	0.000	0.000	0.000	0.000	1	1	0	4.16	1	1.1	0.9	;
	2374	1	0.000	0.000	0.000	0.000	1	1	0	4.16	1	1.1	0.9	;
	2415	1	0.000	0.000	0.000	0.000	1	1	0	4.16	1	1.1	0.9	;
	2429	1	0.000	0.000	0.000	0.000	1	1	0	4.16	1	1.1	0.9	;
	2431	1	0.000	0.000	0.000	0.000	1	1	0	4.16	1	1.1	0.9	;
	2432	1	0.000	0.000	0.000	0.000	1	1	0	4.16	1	1.1	0.9	;
	2440	1	0.000	0.000	0.000	0.000	1	1	0	4.16	1	1.1	0.9	;
	2477	1	0.000	0.000	0.000	0.000	1	1	0	4.16	1	1.1	0.9	;
	2530	1	0.000	0.000	0.000	0.000	1	1	0	4.16	1	1.1	0.9	;
	2580	1	0.000	0.000	0.000	0.000	1	1	0	4.16	1	1.1	0.9	;
	2730	1	0.000	0.000	0.000	0.000	1	1	0	4.16	1	1.1	0.9	;
	2891	1	0.160	0.080	0.000	0.000	1	1	0	4.16	1	1.1	0.9	;
	2897	1	0.020	0.010	0.000	0.000	1	1	0	4.16	1	1.1	0.9	;
	2898	1	0.120	0.060	0.000	0.000	1	1	0	4.16	1	1.1	0.9	;
	2903	1	0.100	0.050	0.000	0.000	1	1	0	4.16	1	1.1	0.9	;
	2942	1	0.040	0.020	0.000	0.000	1	1	0	4.16	1	1.1	0.9	;
	2943	1	0.040	0.020	0.000	0.000	1	1	0	4.16	1	1.1	0.9	;
	2944	1	0.000	0.000	0.000	0.000	1	1	0	4.16	1	1.1	0.9	;
	2945	1	0.020	0.010	0.000	0.000	1	1	0	4.16	1	1.1	0.9	;
	2946	1	0.020	0.010	0.000	0.000	1	1	0	4.16	1	1.1	0.9	;
	2947	1	0.040	0.020	0.000	0.000	1	1	0	4.16	1	1.1	0.9	;
	2950	1	0.020	0.010	0.000	0.000	1	1	0	4.16	1	1.1	0.9	;
	2952	1	0.040	0.020	0.000	0.000	1	1	0	4.16	1	1.1	0.9	;
	2953	1	0.040	0.020	0.000	0.000	1	1	0	4.16	1	1.1	0.9	;
	2954	1	0.075	0.035	0.000	0.000	1	1	0	4.16	1	1.1	0.9	;
	2955	1	0.140	0.100	0.000	0.000	1	1	0	4.16	1	1.1	0.9	;
	2956	1	0.075	0.035	0.000	0.000	1	1	0	4.16	1	1.1	0.9	;
	2957	1	0.120	0.060	0.000	0.000	1	1	0	4.16	1	1.1	0.9	;
	2962	1	0.120	0.060	0.000	0.000	1	1	0	4.16	1	1.1	0.9	;
	2966	1	0.245	0.180	0.000	0.000	1	1	0	4.16	1	1.1	0.9	;
	2967	1	0.040	0.020	0.000	0.000	1	1	0	4.16	1	1.1	0.9	;
	2968	1	0.000	0.000	0.000	0.000	1	1	0	4.16	1	1.1	0.9	;
	2969	1	0.040	0.020	0.000	0.000	1	1	0	4.16	1	1.1	0.9	;
	2970	1	0.040	0.020	0.000	0.000	1	1	0	4.16	1	1.1	0.9	;
	2971	1	0.060	0.030	0.000	0.000	1	1	0	4.16	1	1.1	0.9	;
	2972	1	0.040	0.020	0.000	0.000	1	1	0	4.16	1	1.1	0.9	;
	2973	1	0.020	0.010	0.000	0.000	1	1	0	4.16	1	1.1	0.9	;
	2976	1	0.020	0.010	0.000	0.000	1	1	0	4.16	1	1.1	0.9	;
	2977	1	0.080	0.040	0.000	0.000	1	1	0	4.16	1	1.1	0.9	;
	2979	1	0.040	0.020	0.000	0.000	1	1	0	4.16	1	1.1	0.9	;
	2981	1	0.040	0.020	0.000	0.000	1	1	0	4.16	1	1.1	0.9	;
	2983	1	0.040	0.020	0.000	0.000	1	1	0	4.16	1	1.1	0.9	;
	2985	1	0.040	0.020	0.000	0.000	1	1	0	4.16	1	1.1	0.9	;
	2987	1	0.000	0.000	0.000	0.000	1	1	0	4.16	1	1.1	0.9	;
	2988	1	0.040	0.020	0.000	0.000	1	1	0	4.16	1	1.1	0.9	;
	2989	1	0.040	0.020	0.000	0.000	1	1	0	4.16	1	1.1	0.9	;
	2990	1	0.040	0.020	0.000	0.000	1	1	0	4.16	1	1.1	0.9	;
	2991	1	0.100	0.050	0.000	0.000	1	1	0	4.16	1	1.1	0.9	;
	2995	1	0.080	0.040	0.000	0.000	1	1	0	4.16	1	1.1	0.9	;
	2998	1	0.140	0.070	0.000	0.000	1	1	0	4.16	1	1.1	0.9	;
	2908	1	0.080	0.040	0.000	0.000	1	1	0	4.16	1	1.1	0.9	;
	2911	1	0.040	0.020	0.000	0.000	1	1	0	4.16	1	1.1	0.9	;
	2913	1	0.040	0.020	0.000	0.000	1	1	0	4.16	1	1.1	0.9	;
	2915	1	0.080	0.040	0.000	0.000	1	1	0	4.16	1	1.1	0.9	;
	2918	1	0.040	0.020	0.000	0.000	1	1	0	4.16	1	1.1	0.9	;
	2919	1	0.040	0.020	0.000	0.000	1	1	0	4.16	1	1.1	0.9	;
	2920	1	0.040	0.020	0.000	0.000	1	1	0	4.16	1	1.1	0.9	;
	2925	1	0.120	0.060	0.000	0.000	1	1	0	4.16	1	1.1	0.9	;
	2930	1	0.020	0.010	0.000	0.000	1	1	0	4.16	1	1.1	0.9	;
	2932	1	0.060	0.030	0.000	0.000	1	1	0	4.16	1	1.1	0.9	;
	2934	1	0.040	0.020	0.000	0.000	1	1	0	4.16	1	1.1	0.9	;
	2937	1	0.105	0.075	0.000	0.000	1	1	0	4.16	1	1.1	0.9	;
	2938	1	0.210	0.150	0.000	0.000	1	1	0	4.16	1	1.1	0.9	;
	2939	1	0.140	0.095	0.000	0.000	1	1	0	4.16	1	1.1	0.9	;
	2940	1	0.040	0.020	0.000	0.000	1	1	0	4.16	1	1.1	0.9	;
	2941	1	0.020	0.010	0.000	0.000	1	1	0	4.16	1	1.1	0.9	;
	3040	3	0.000	0.000	0.000	0.000	1	1	0	4.16	1	1.1	0.9	;
	2951	1	0.000	0.000	0.000	0.000	1	1	0	4.16	1	1.1	0.9	;
	2984	1	0.000	0.000	0.000	0.000	1	1	0	4.16	1	1.1	0.9	;
	3025	1	0.000	0.000	0.000	0.000	1	1	0	4.16	1	1.1	0.9	;
	3039	1	0.000	0.000	0.000	0.000	1	1	0	4.16	1	1.1	0.9	;
	3041	1	0.000	0.000	0.000	0.000	1	1	0	4.16	1	1.1	0.9	;
	3042	1	0.000	0.000	0.000	0.000	1	1	0	4.16	1	1.1	0.9	;
	3050	1	0.000	0.000	0.000	0.000	1	1	0	4.16	1	1.1	0.9	;
	3087	1	0.000	0.000	0.000	0.000	1	1	0	4.16	1	1.1	0.9	;
	3140	1	0.000	0.000	0.000	0.000	1	1	0	4.16	1	1.1	0.9	;
	3190	1	0.000	0.000	0.000	0.000	1	1	0	4.16	1	1.1	0.9	;
	3340	1	0.000	0.000	0.000	0.000	1	1	0	4.16	1	1.1	0.9	;
	3501	1	0.160	0.080	0.000	0.000	1	1	0	4.16	1	1.1	0.9	;
	3507	1	0.020	0.010	0.000	0.000	1	1	0	4.16	1	1.1	0.9	;
	3508	1	0.120	0.060	0.000	0.000	1	1	0	4.16	1	1.1	0.9	;
	3513	1	0.100	0.050	0.000	0.000	1	1	0	4.16	1	1.1	0.9	;
	3552	1	0.040	0.020	0.000	0.000	1	1	0	4.16	1	1.1	0.9	;
	3553	1	0.040	0.020	0.000	0.000	1	1	0	4.16	1	1.1	0.9	;
	3554	1	0.000	0.000	0.000	0.000	1	1	0	4.16	1	1.1	0.9	;
	3555	1	0.020	0.010	0.000	0.000	1	1	0	4.16	1	1.1	0.9	;
	3556	1	0.020	0.010	0.000	0.000	1	1	0	4.16	1	1.1	0.9	;
	3557	1	0.040	0.020	0.000	0.000	1	1	0	4.16	1	1.1	0.9	;
	3560	1	0.020	0.010	0.000	0.000	1	1	0	4.16	1	1.1	0.9	;
	3562	1	0.040	0.020	0.000	0.000	1	1	0	4.16	1	1.1	0.9	;
	3563	1	0.040	0.020	0.000	0.000	1	1	0	4.16	1	1.1	0.9	;
	3564	1	0.075	0.035	0.000	0.000	1	1	0	4.16	1	1.1	0.9	;
	3565	1	0.140	0.100	0.000	0.000	1	1	0	4.16	1	1.1	0.9	;
	3566	1	0.075	0.035	0.000	0.000	1	1	0	4.16	1	1.1	0.9	;
	3567	1	0.120	0.060	0.000	0.000	1	1	0	4.16	1	1.1	0.9	;
	3572	1	0.120	0.060	0.000	0.000	1	1	0	4.16	1	1.1	0.9	;
	3576	1	0.245	0.180	0.000	0.000	1	1	0	4.16	1	1.1	0.9	;
	3577	1	0.040	0.020	0.000	0.000	1	1	0	4.16	1	1.1	0.9	;
	3578	1	0.000	0.000	0.000	0.000	1	1	0	4.16	1	1.1	0.9	;
	3579	1	0.040	0.020	0.000	0.000	1	1	0	4.16	1	1.1	0.9	;
	3580	1	0.040	0.020	0.000	0.000	1	1	0	4.16	1	1.1	0.9	;
	3581	1	0.060	0.030	0.000	0.000	1	1	0	4.16	1	1.1	0.9	;
	3582	1	0.040	0.020	0.000	0.000	1	1	0	4.16	1	1.1	0.9	;
	3583	1	0.020	0.010	0.000	0.000	1	1	0	4.16	1	1.1	0.9	;
	3586	1	0.020	0.010	0.000	0.000	1	1	0	4.16	1	1.1	0.9	;
	3587	1	0.080	0.040	0.000	0.000	1	1	0	4.16	1	1.1	0.9	;
	3589	1	0.040	0.020	0.000	0.000	1	1	0	4.16	1	1.1	0.9	;
	3591	1	0.040	0.020	0.000	0.000	1	1	0	4.16	1	1.1	0.9	;
	3593	1	0.040	0.020	0.000	0.000	1	1	0	4.16	1	1.1	0.9	;
	3595	1	0.040	0.020	0.000	0.000	1	1	0	4.16	1	1.1	0.9	;
	3597	1	0.000	0.000	0.000	0.000	1	1	0	4.16	1	1.1	0.9	;
	3598	1	0.040	0.020	0.000	0.000	1	1	0	4.16	1	1.1	0.9	;
	3599	1	0.040	0.020	0.000	0.000	1	1	0	4.16	1	1.1	0.9	;
	3600	1	0.040	0.020	0.000	0.000	1	1	0	4.16	1	1.1	0.9	;
	3601	1	0.100	0.050	0.000	0.000	1	1	0	4.16	1	1.1	0.9	;
	3605	1	0.080	0.040	0.000	0.000	1	1	0	4.16	1	1.1	0.9	;
	3608	1	0.140	0.070	0.000	0.000	1	1	0	4.16	1	1.1	0.9	;
	3518	1	0.080	0.040	0.000	0.000	1	1	0	4.16	1	1.1	0.9	;
	3521	1	0.040	0.020	0.000	0.000	1	1	0	4.16	1	1.1	0.9	;
	3523	1	0.040	0.020	0.000	0.000	1	1	0	4.16	1	1.1	0.9	;
	3525	1	0.080	0.040	0.000	0.000	1	1	0	4.16	1	1.1	0.9	;
	3528	1	0.040	0.020	0.000	0.000	1	1	0	4.16	1	1.1	0.9	;
	3529	1	0.040	0.020	0.000	0.000	1	1	0	4.16	1	1.1	0.9	;
	3530	1	0.040	0.020	0.000	0.000	1	1	0	4.16	1	1.1	0.9	;
	3535	1	0.120	0.060	0.000	0.000	1	1	0	4.16	1	1.1	0.9	;
	3540	1	0.020	0.010	0.000	0.000	1	1	0	4.16	1	1.1	0.9	;
	3542	1	0.060	0.030	0.000	0.000	1	1	0	4.16	1	1.1	0.9	;
	3544	1	0.040	0.020	0.000	0.000	1	1	0	4.16	1	1.1	0.9	;
	3547	1	0.105	0.075	0.000	0.000	1	1	0	4.16	1	1.1	0.9	;
	3548	1	0.210	0.150	0.000	0.000	1	1	0	4.16	1	1.1	0.9	;
	3549	1	0.140	0.095	0.000	0.000	1	1	0	4.16	1	1.1	0.9	;
	3550	1	0.040	0.020	0.000	0.000	1	1	0	4.16	1	1.1	0.9	;
	3551	1	0.020	0.010	0.000	0.000	1	1	0	4.16	1	1.1	0.9	;
	3650	3	0.000	0.000	0.000	0.000	1	1	0	4.16	1	1.1	0.9	;
	3561	1	0.000	0.000	0.000	0.000	1	1	0	4.16	1	1.1	0.9	;
	3594	1	0.000	0.000	0.000	0.000	1	1	0	4.16	1	1.1	0.9	;
	3635	1	0.000	0.000	0.000	0.000	1	1	0	4.16	1	1.1	0.9	;
	3649	1	0.000	0.000	0.000	0.000	1	1	0	4.16	1	1.1	0.9	;
	3651	1	0.000	0.000	0.000	0.000	1	1	0	4.16	1	1.1	0.9	;
	3652	1	0.000	0.000	0.000	0.000	1	1	0	4.16	1	1.1	0.9	;
	3660	1	0.000	0.000	0.000	0.000	1	1	0	4.16	1	1.1	0.9	;
	3697	1	0.000	0.000	0.000	0.000	1	1	0	4.16	1	1.1	0.9	;
	3750	1	0.000	0.000	0.000	0.000	1	1	0	4.16	1	1.1	0.9	;
	3800	1	0.000	0.000	0.000	0.000	1	1	0	4.16	1	1.1	0.9	;
	3950	1	0.000	0.000	0.000	0.000	1	1	0	4.16	1	1.1	0.9	;
	4111	1	0.160	0.080	0.000	0.000	1	1	0	4.16	1	1.1	0.9	;
	4117	1	0.020	0.010	0.000	0.000	1	1	0	4.16	1	1.1	0.9	;
	4118	1	0.120	0.060	0.000	0.000	1	1	0	4.16	1	1.1	0.9	;
	4123	1	0.100	0.050	0.000	0.000	1	1	0	4.16	1	1.1	0.9	;
	4162	1	0.040	0.020	0.000	0.000	1	1	0	4.16	1	1.1	0.9	;
	4163	1	0.040	0.020	0.000	0.000	1	1	0	4.16	1	1.1	0.9	;
	4164	1	0.000	0.000	0.000	0.000	1	1	0	4.16	1	1.1	0.9	;
	4165	1	0.020	0.010	0.000	0.000	1	1	0	4.16	1	1.1	0.9	;
	4166	1	0.020	0.010	0.000	0.000	1	1	0	4.16	1	1.1	0.9	;
	4167	1	0.040	0.020	0.000	0.000	1	1	0	4.16	1	1.1	0.9	;
	4170	1	0.020	0.010	0.000	0.000	1	1	0	4.16	1	1.1	0.9	;
	4172	1	0.040	0.020	0.000	0.000	1	1	0	4.16	1	1.1	0.9	;
	4173	1	0.040	0.020	0.000	0.000	1	1	0	4.16	1	1.1	0.9	;
	4174	1	0.075	0.035	0.000	0.000	1	1	0	4.16	1	1.1	0.9	;
	4175	1	0.140	0.100	0.000	0.000	1	1	0	4.16	1	1.1	0.9	;
	4176	1	0.075	0.035	0.000	0.000	1	1	0	4.16	1	1.1	0.9	;
	4177	1	0.120	0.060	0.000	0.000	1	1	0	4.16	1	1.1	0.9	;
	4182	1	0.120	0.060	0.000	0.000	1	1	0	4.16	1	1.1	0.9	;
	4186	1	0.245	0.180	0.000	0.000	1	1	0	4.16	1	1.1	0.9	;
	4187	1	0.040	0.020	0.000	0.000	1	1	0	4.16	1	1.1	0.9	;
	4188	1	0.000	0.000	0.000	0.000	1	1	0	4.16	1	1.1	0.9	;
	4189	1	0.040	0.020	0.000	0.000	1	1	0	4.16	1	1.1	0.9	;
	4190	1	0.040	0.020	0.000	0.000	1	1	0	4.16	1	1.1	0.9	;
	4191	1	0.060	0.030	0.000	0.000	1	1	0	4.16	1	1.1	0.9	;
	4192	1	0.040	0.020	0.000	0.000	1	1	0	4.16	1	1.1	0.9	;
	4193	1	0.020	0.010	0.000	0.000	1	1	0	4.16	1	1.1	0.9	;
	4196	1	0.020	0.010	0.000	0.000	1	1	0	4.16	1	1.1	0.9	;
	4197	1	0.080	0.040	0.000	0.000	1	1	0	4.16	1	1.1	0.9	;
	4199	1	0.040	0.020	0.000	0.000	1	1	0	4.16	1	1.1	0.9	;
	4201	1	0.040	0.020	0.000	0.000	1	1	0	4.16	1	1.1	0.9	;
	4203	1	0.040	0.020	0.000	0.000	1	1	0	4.16	1	1.1	0.9	;
	4205	1	0.040	0.020	0.000	0.000	1	1	0	4.16	1	1.1	0.9	;
	4207	1	0.000	0.000	0.000	0.000	1	1	0	4.16	1	1.1	0.9	;
	4208	1	0.040	0.020	0.000	0.000	1	1	0	4.16	1	1.1	0.9	;
	4209	1	0.040	0.020	0.000	0.000	1	1	0	4.16	1	1.1	0.9	;
	4210	1	0.040	0.020	0.000	0.000	1	1	0	4.16	1	1.1	0.9	;
	4211	1	0.100	0.050	0.000	0.000	1	1	0	4.16	1	1.1	0.9	;
	4215	1	0.080	0.040	0.000	0.000	1	1	0	4.16	1	1.1	0.9	;
	4218	1	0.140	0.070	0.000	0.000	1	1	0	4.16	1	1.1	0.9	;
	4128	1	0.080	0.040	0.000	0.000	1	1	0	4.16	1	1.1	0.9	;
	4131	1	0.040	0.020	0.000	0.000	1	1	0	4.16	1	1.1	0.9	;
	4133	1	0.040	0.020	0.000	0.000	1	1	0	4.16	1	1.1	0.9	;
	4135	1	0.080	0.040	0.000	0.000	1	1	0	4.16	1	1.1	0.9	;
	4138	1	0.040	0.020	0.000	0.000	1	1	0	4.16	1	1.1	0.9	;
	4139	1	0.040	0.020	0.000	0.000	1	1	0	4.16	1	1.1	0.9	;
	4140	1	0.040	0.020	0.000	0.000	1	1	0	4.16	1	1.1	0.9	;
	4145	1	0.120	0.060	0.000	0.000	1	1	0	4.16	1	1.1	0.9	;
	4150	1	0.020	0.010	0.000	0.000	1	1	0	4.16	1	1.1	0.9	;
	4152	1	0.060	0.030	0.000	0.000	1	1	0	4.16	1	1.1	0.9	;
	4154	1	0.040	0.020	0.000	0.000	1	1	0	4.16	1	1.1	0.9	;
	4157	1	0.105	0.075	0.000	0.000	1	1	0	4.16	1	1.1	0.9	;
	4158	1	0.210	0.150	0.000	0.000	1	1	0	4.16	1	1.1	0.9	;
	4159	1	0.140	0.095	0.000	0.000	1	1	0	4.16	1	1.1	0.9	;
	4160	1	0.040	0.020	0.000	0.000	1	1	0	4.16	1	1.1	0.9	;
	4161	1	0.020	0.010	0.000	0.000	1	1	0	4.16	1	1.1	0.9	;
	4260	3	0.000	0.000	0.000	0.000	1	1	0	4.16	1	1.1	0.9	;
	4171	1	0.000	0.000	0.000	0.000	1	1	0	4.16	1	1.1	0.9	;